experimentos/experimento_10_execucoes_Kara_PVWatts/execucao_02/dados/inputs/carga_base/Loads_FeederB.dss
! Arquivo Load - Feeder B
New Load.Load_2002 phases=3 conn=wye bus1=T_bus2002_L.1.2.3.0 kV=0.208 kW=242.820 yearly=Load_Bus_2002 model=1
New Load.Load_2003 phases=3 conn=wye bus1=T_bus2003_L.1.2.3.0 kV=0.208 kW=35.744 yearly=Load_Bus_2003 model=1
New Load.Load_2005 phases=3 conn=wye bus1=T_bus2005_L.1.2.3.0 kV=0.208 kW=17.163 yearly=Load_Bus_2005 model=1
New Load.Load_2008 phases=2 conn=wye bus1=T_bus2008_L.1.2 kV=0.208 kW=15.304 yearly=Load_Bus_2008 model=1
New Load.Load_2009 phases=2 conn=wye bus1=T_bus2009_L.1.2 kV=0.208 kW=8.435 yearly=Load_Bus_2009 model=1
New Load.Load_2010 phases=3 conn=wye bus1=T_bus2010_L.1.2.3.0 kV=0.208 kW=14.731 yearly=Load_Bus_2010 model=1
New Load.Load_2011 phases=3 conn=wye bus1=T_bus2011_L.1.2.3.0 kV=0.208 kW=24.247 yearly=Load_Bus_2011 model=1
New Load.Load_2014 phases=2 conn=wye bus1=T_bus2014_L.1.2 kV=0.208 kW=17.341 yearly=Load_Bus_2014 model=1
New Load.Load_2015 phases=2 conn=wye bus1=T_bus2015_L.1.2 kV=0.208 kW=9.191 yearly=Load_Bus_2015 model=1
New Load.Load_2016 phases=2 conn=wye bus1=T_bus2016_L.1.2 kV=0.208 kW=12.655 yearly=Load_Bus_2016 model=1
New Load.Load_2017 phases=2 conn=wye bus1=T_bus2017_L.1.2 kV=0.208 kW=15.393 yearly=Load_Bus_2017 model=1
New Load.Load_2018 phases=2 conn=wye bus1=T_bus2018_L.1.2 kV=0.208 kW=14.117 yearly=Load_Bus_2018 model=1
New Load.Load_2020 phases=2 conn=wye bus1=T_bus2020_L.1.2 kV=0.208 kW=12.706 yearly=Load_Bus_2020 model=1
New Load.Load_2022 phases=2 conn=wye bus1=T_bus2022_L.1.2 kV=0.208 kW=13.909 yearly=Load_Bus_2022 model=1
New Load.Load_2023 phases=2 conn=wye bus1=T_bus2023_L.1.2 kV=0.208 kW=3.743 yearly=Load_Bus_2023 model=1
New Load.Load_2024 phases=2 conn=wye bus1=T_bus2024_L.1.2 kV=0.208 kW=15.011 yearly=Load_Bus_2024 model=1
New Load.Load_2025 phases=2 conn=wye bus1=T_bus2025_L.1.2 kV=0.208 kW=13.932 yearly=Load_Bus_2025 model=1
New Load.Load_2028 phases=2 conn=wye bus1=T_bus2028_L.1.2 kV=0.208 kW=8.845 yearly=Load_Bus_2028 model=1
New Load.Load_2029 phases=3 conn=wye bus1=T_bus2029_L.1.2.3.0 kV=0.208 kW=41.721 yearly=Load_Bus_2029 model=1
New Load.Load_2030 phases=3 conn=wye bus1=T_bus2030_L.1.2.3.0 kV=0.208 kW=55.488 yearly=Load_Bus_2030 model=1
New Load.Load_2031 phases=2 conn=wye bus1=T_bus2031_L.1.2 kV=0.208 kW=16.046 yearly=Load_Bus_2031 model=1
New Load.Load_2032 phases=3 conn=wye bus1=T_bus2032_L.1.2.3.0 kV=0.208 kW=7.788 yearly=Load_Bus_2032 model=1
New Load.Load_2034 phases=3 conn=wye bus1=T_bus2034_L.1.2.3.0 kV=0.208 kW=25.200 yearly=Load_Bus_2034 model=1
New Load.Load_2035 phases=3 conn=wye bus1=T_bus2035_L.1.2.3.0 kV=0.208 kW=33.627 yearly=Load_Bus_2035 model=1
New Load.Load_2037 phases=3 conn=wye bus1=T_bus2037_L.1.2.3.0 kV=0.208 kW=17.555 yearly=Load_Bus_2037 model=1
New Load.Load_2040 phases=3 conn=wye bus1=T_bus2040_L.1.2.3.0 kV=0.208 kW=204.279 yearly=Load_Bus_2040 model=1
New Load.Load_2041 phases=3 conn=wye bus1=T_bus2041_L.1.2.3.0 kV=0.208 kW=19.979 yearly=Load_Bus_2041 model=1
New Load.Load_2042 phases=3 conn=wye bus1=T_bus2042_L.1.2.3.0 kV=0.208 kW=39.779 yearly=Load_Bus_2042 model=1
New Load.Load_2043 phases=3 conn=wye bus1=T_bus2043_L.1.2.3.0 kV=0.208 kW=52.840 yearly=Load_Bus_2043 model=1
New Load.Load_2045 phases=2 conn=wye bus1=T_bus2045_L.1.2 kV=0.208 kW=7.214 yearly=Load_Bus_2045 model=1
New Load.Load_2046 phases=2 conn=wye bus1=T_bus2046_L.1.2 kV=0.208 kW=27.420 yearly=Load_Bus_2046 model=1
New Load.Load_2047 phases=2 conn=wye bus1=T_bus2047_L.1.2 kV=0.208 kW=28.675 yearly=Load_Bus_2047 model=1
New Load.Load_2048 phases=2 conn=wye bus1=T_bus2048_L.1.2 kV=0.208 kW=26.650 yearly=Load_Bus_2048 model=1
New Load.Load_2049 phases=2 conn=wye bus1=T_bus2049_L.1.2 kV=0.208 kW=18.797 yearly=Load_Bus_2049 model=1
New Load.Load_2050 phases=2 conn=wye bus1=T_bus2050_L.1.2 kV=0.208 kW=17.291 yearly=Load_Bus_2050 model=1
New Load.Load_2051 phases=2 conn=wye bus1=T_bus2051_L.1.2 kV=0.208 kW=23.115 yearly=Load_Bus_2051 model=1
New Load.Load_2052 phases=3 conn=wye bus1=T_bus2052_L.1.2.3.0 kV=0.208 kW=188.283 yearly=Load_Bus_2052 model=1
New Load.Load_2053 phases=3 conn=wye bus1=T_bus2053_L.1.2.3.0 kV=0.208 kW=136.240 yearly=Load_Bus_2053 model=1
New Load.Load_2054 phases=2 conn=wye bus1=T_bus2054_L.1.2 kV=0.208 kW=21.436 yearly=Load_Bus_2054 model=1
New Load.Load_2055 phases=2 conn=wye bus1=T_bus2055_L.1.2 kV=0.208 kW=32.329 yearly=Load_Bus_2055 model=1
New Load.Load_2056 phases=2 conn=wye bus1=T_bus2056_L.1.2 kV=0.208 kW=14.721 yearly=Load_Bus_2056 model=1
New Load.Load_2058 phases=3 conn=wye bus1=T_bus2058_L.1.2.3.0 kV=0.208 kW=183.560 yearly=Load_Bus_2058 model=1
New Load.Load_2059 phases=2 conn=wye bus1=T_bus2059_L.1.2 kV=0.208 kW=9.429 yearly=Load_Bus_2059 model=1
New Load.Load_2060 phases=2 conn=wye bus1=T_bus2060_L.1.2 kV=0.208 kW=10.055 yearly=Load_Bus_2060 model=1
